<?xml version="1.0" encoding="UTF-8"?>

<!-- generated on Fri Jun 19 23:47:12 2020 by Eclipse SUMO duarouter Version 1.5.0
<configuration xmlns:xsi="http://www.w3.org/2001/XMLSchema-instance" xsi:noNamespaceSchemaLocation="http://sumo.dlr.de/xsd/duarouterConfiguration.xsd">

    <input>
        <net-file value="erlangen.net.xml"/>
        <route-files value="trips.trips.xml"/>
    </input>

    <output>
        <output-file value="test.rou.xml"/>
        <alternatives-output value="test.rou.alt.xml"/>
    </output>

    <time>
        <begin value="0"/>
        <end value="50.0"/>
    </time>

    <report>
        <no-warnings value="true"/>
        <ignore-errors value="true"/>
        <no-step-log value="true"/>
    </report>

</configuration>
-->

<routes xmlns:xsi="http://www.w3.org/2001/XMLSchema-instance" xsi:noNamespaceSchemaLocation="http://sumo.dlr.de/xsd/routes_file.xsd">
    <vehicle id="0" depart="0.00">
        <route edges="3998645#2 30350450#1 30350450#2 4319352#1 44069041#0 44069041#1 25472079 30405352 30350445 -33174302#1 -33174302#0 -32270595 -29900561#1 -29900561#0 -8403001 -4006674#4 -4006674#3 4006684"/>
    </vehicle>
    <vehicle id="1" depart="1.00">
        <route edges="-9643180 -29900561#0 -8403001 -4006674#4 23605600#1 4006675 -32270592#0"/>
    </vehicle>
    <vehicle id="2" depart="2.00">
        <route edges="23570844#2 10419402 -4006693#1 -23605595 -8403007 -29900564#1 -8402998#2 -8402998#1 -8402997 32270595 -32302591#5 -32302591#4 -32302591#3 -32302591#2 -32302591#1 -32302591#0 4006672"/>
    </vehicle>
    <vehicle id="3" depart="3.00">
        <route edges="-28613727#1 28613727#1 -94344940#0 28768072 -28613737 -4006702#0 4319352#1"/>
    </vehicle>
    <vehicle id="4" depart="4.00">
        <route edges="10425130 4006688#4 29900561#0 29900561#1 8402997 -8402998#0 -29900565#2"/>
    </vehicle>
    <vehicle id="5" depart="5.00">
        <route edges="4900741 35842306#0 35842306#1 4047446#0 4047446#1 5931612 30350450#0 30350450#1"/>
    </vehicle>
    <vehicle id="6" depart="6.00">
        <route edges="-10425128#0 -4006693#2 -4006693#1 -4006693#0 25398494#0 113939242#2 113939241"/>
    </vehicle>
    <vehicle id="7" depart="7.00">
        <route edges="30405358#1 85355912 85355911#0 85355911#1 30405356 5931612 30350450#0 30350450#1 30350450#2 4006702#0 4006702#1 4006702#2 -28269598 -4006703#1 -4006703#0"/>
    </vehicle>
    <vehicle id="8" depart="8.00">
        <route edges="-32320329 -113939241 113939244#0 113939244#1 113939244#2 -126606716 23339459 30405358#1 85355912 85355911#0 85355911#1 30405356 5931612 30350450#0 -3998645#2"/>
    </vehicle>
    <vehicle id="9" depart="9.00">
        <route edges="30405358#0 30405358#1 85355912 85355911#0 85355911#1 30405356 25472079 30405352 30350445 -33174302#1 -33174302#0 -32270595 -29900561#1 -29900561#0 -4006688#4 10425131"/>
    </vehicle>
    <vehicle id="10" depart="10.00">
        <route edges="4006725#0 4006725#1 -3998612#0 30357194 25472299 30350448 30350449 25472079 30405352 30350445 -33174302#1 -33174302#0 -32270595 -29900561#1 -29900561#0 -4006688#4 -4006688#3 -4006688#2 -4006688#1 -4006688#0 31401017#1 -31401017#1"/>
    </vehicle>
    <vehicle id="11" depart="11.00">
        <route edges="4047316 -31270441 31777493#1 35842306#0 35842306#1 4047446#0 4047446#1 4400949 31982182#0 4047241"/>
    </vehicle>
    <vehicle id="12" depart="12.00">
        <route edges="-23605600#1 4006674#4 4006687 32270595 33174302#0 33174302#1 4686970#0 25472257 -30357194 3998612#0 3998612#1"/>
    </vehicle>
    <vehicle id="13" depart="13.00">
        <route edges="-113939241 113939244#0 113939244#1 113939244#2 -126606716 23339459 30405358#1 85355912 85355911#0 85355911#1 30405356 5931612 30350450#0 30350450#1 -3998643#2 3998615#2"/>
    </vehicle>
    <vehicle id="14" depart="14.00">
        <route edges="3998615#0 -3998615#0 3013106#2 4319352#1 44069041#0 44069041#1 4400949 31982182#0 4047241 4797872 4797871 4006668 23339459 30405358#1 85355912 85355911#0"/>
    </vehicle>
    <vehicle id="15" depart="15.00">
        <route edges="3998615#2 -3998615#2 -3998615#1 -3998615#0 -3013106#1 -3013106#0 -10573414#1 4047378"/>
    </vehicle>
    <vehicle id="16" depart="16.00">
        <route edges="-8402998#3 29900564#1 8403007 23605595"/>
    </vehicle>
    <vehicle id="17" depart="17.00">
        <route edges="31982182#0 4047241 4797872 4797871 4006668 126606716 113939242#0 113939242#1 113939242#2 113939241"/>
    </vehicle>
    <vehicle id="18" depart="18.00">
        <route edges="4006694 -4006693#3 -4006693#2 -4006693#1 -4006693#0 25398494#0 113939244#1 113939244#2 -126606716 -4006668 -15259223"/>
    </vehicle>
    <vehicle id="19" depart="19.00">
        <route edges="-31401017#0 31401017#0 4006688#0 4006688#1 4006688#2 4006688#3 4006688#4 29900561#0 29900561#1 32270595 33174302#0 33174302#1 4686970#0 25472257 -30357194 30357194"/>
    </vehicle>
    <vehicle id="20" depart="20.00">
        <route edges="-8402998#2 -8402998#1 -8402997 32270595 33174302#0 33174302#1 31353573#0 31353573#1 -3998613#2"/>
    </vehicle>
    <vehicle id="21" depart="21.00">
        <route edges="-4006726#0 -3998615#0 3013106#2 4319352#1 44069041#0 44069041#1 25472079 30405352 30350445 -33174302#1 -33174302#0 -32270595 -29900561#1 -29900561#0 -4006688#4 -4006688#3 -4006688#2 -4006688#1 -4006688#0 -31401017#0"/>
    </vehicle>
    <vehicle id="22" depart="22.00">
        <route edges="30405358#1 85355912 85355911#0 85355911#1 30405356 4400949 31982182#0 4047241 4797872 4797871 4006668 126606716 113939242#0 113939242#1 -25398494#0"/>
    </vehicle>
    <vehicle id="23" depart="23.00">
        <route edges="4319352#1 44069041#0 44069041#1 5931612 30350450#0 30350450#1 30350450#2 -3013106#2 -3013106#1 -3013106#0 -10573414#1 4047378"/>
    </vehicle>
    <vehicle id="24" depart="24.00">
        <route edges="-26188722 35842306#1 4047446#0 4047446#1 5931612 30350450#0 30350450#1 30350450#2 4006702#0 28613737 94344941 94344940#0 -28613727#1 -28613727#0"/>
    </vehicle>
    <vehicle id="25" depart="25.00">
        <route edges="-94344940#3 -94344940#2 -94344940#0 28768072 -28613737 -4006702#0 4319352#1 44069041#0 44069041#1 25472079 30405352 30350445 -33174302#1 -33174302#0 -32270595 -29900561#1 -29900561#0 -4006688#4 -4006688#3 -4006688#2 -4006688#1 -4006688#0 -31401017#0 -29900567 -31401018 -4047532"/>
    </vehicle>
    <vehicle id="27" depart="27.00">
        <route edges="-29900564#5 -29900564#4 -29900564#3 -29900564#2 -29900564#1 -8402998#2 -8402998#1 -8402997 32270595 -32302591#5 23605600#0"/>
    </vehicle>
    <vehicle id="28" depart="28.00">
        <route edges="15259223 4006668 126606716"/>
    </vehicle>
    <vehicle id="29" depart="29.00">
        <route edges="-5445204#3 -5445204#2 -5445204#1 113939244#2 -126606716 23339459 30405358#1 85355912 85355911#0 85355911#1 30405356 4047309 30751813 -35842306#1 -35842306#0 -4900741 4099309"/>
    </vehicle>
    <vehicle id="30" depart="30.00">
        <route edges="28613734 28613727#0 28613727#1 -94344940#0 28768072 -28613737 -4006702#0 4319352#1 44069041#0 44069041#1 25472079 30405352 30350445 -33174302#1 -33174302#0 -29900565#3 -29900565#2 -29900565#1 -29900565#0 -4006690 -4006693#4"/>
    </vehicle>
    <vehicle id="31" depart="31.00">
        <route edges="-31353573#0 4686970#0 4686970#1 122161381 30350448 30350449 4400949 31982182#0 4047241 4797872 4797871 4006668 126606716 -126606716"/>
    </vehicle>
    <vehicle id="32" depart="32.00">
        <route edges="4006688#0 4006688#1 4006688#2 4006688#3 4006688#4 29900561#0 29900561#1 32270595 33174302#0 33174302#1 4686970#0 4686970#1 122161381 30350448 30350449 4400949 31982182#0"/>
    </vehicle>
    <vehicle id="33" depart="33.00">
        <route edges="-4006687 8403001 29900561#0 29900561#1 32270595 -32302591#5 -32302591#4 -32302591#3 -32302591#2"/>
    </vehicle>
    <vehicle id="34" depart="34.00">
        <route edges="-3998645#0 3998612#1 3998612#2 3013106#0 3013106#1 3013106#2 4006702#0 4006702#1"/>
    </vehicle>
    <vehicle id="35" depart="35.00">
        <route edges="15259223 4006668 23339459 30405358#1 85355912 85355911#0 85355911#1 30405356 5931612 30350450#0 30350450#1 30350450#2 4006702#0 4006702#1 4006702#2 -28269598"/>
    </vehicle>
    <vehicle id="36" depart="36.00">
        <route edges="30350450#1 30350450#2 4319352#1 44069041#0 44069041#1 4400949 31982182#0 4047241 4797872 4797871 4006668 126606716 113939242#0 113939242#1 113939242#2 113939241"/>
    </vehicle>
    <vehicle id="37" depart="37.00">
        <route edges="29900564#1 8403007 23605595 -4006693#0 25398494#0 113939244#1 5445204#1 5445204#2 39539626"/>
    </vehicle>
    <vehicle id="38" depart="38.00">
        <route edges="23360299 -5445204#1 113939244#2 -126606716 23339459 30405358#1 85355912 85355911#0 85355911#1 30405356 25472079 30405352 19796637 122161390 -30357194 3998613#0"/>
    </vehicle>
    <vehicle id="39" depart="39.00">
        <route edges="31241848 31241851#0 31241851#1 31241851#2 -31255203#0 -4006702#0 4319352#1 44069041#0 44069041#1 4400949 31982182#0 31982182#1"/>
    </vehicle>
    <vehicle id="40" depart="40.00">
        <route edges="4006672 -4006672 32302591#0 32302591#1 32302591#2 32302591#3 32302591#4 32302591#5 33174302#0 33174302#1 4686970#0 25472257 -30357194 3998612#0 3998612#1 3998612#2"/>
    </vehicle>
    <vehicle id="41" depart="41.00">
        <route edges="-32320329 -113939241 113939244#0 113939242#2"/>
    </vehicle>
    <vehicle id="42" depart="42.00">
        <route edges="15259223 4006668 23339459 30405358#1 85355912 85355911#0 85355911#1 30405356 25472079 30405352 30350445 31353573#0 31353573#1 -3998613#2 4006740"/>
    </vehicle>
    <vehicle id="43" depart="43.00">
        <route edges="-10425128#0 4006693#3 4006693#4 4006690 29900565#0 29900565#1 29900565#2 29900565#3 33174302#0 33174302#1 4686970#0 4686970#1 122161381 30350448 8364476 30350450#0 30350450#1 30350450#2 4319352#1"/>
    </vehicle>
    <vehicle id="44" depart="44.00">
        <route edges="32270592#1 4047532 31401018 29900567 31401017#0 4006688#0 4006688#1 4006688#2 4006688#3 4006688#4 29900561#0 29900561#1 32270595 33174302#0 33174302#1 4686970#0 4686970#1 122161381 30350448 30350449 4047309 30751813 -35842306#1 -35842306#0 -4900741 -4900739#2 -4900739#1 -4099309"/>
    </vehicle>
    <vehicle id="45" depart="45.00">
        <route edges="4006725#1 -3998612#0 30357194 25472299 30350448 30350449 25472079 30405352 30350445 -33174302#1 -33174302#0 -29900565#3 -29900565#2 -29900565#1 4006691"/>
    </vehicle>
    <vehicle id="46" depart="46.00">
        <route edges="4900043 4900041#1 4900041#2 4900041#3 4900041#0 -4900043 -4006702#1 -4006702#0 4319352#1 44069041#0 44069041#1 4400949 31982182#0 4047241 4797872 4797871 4006668 126606716 113939242#0 5445204#1 5445204#2 5445204#3 23570844#2"/>
    </vehicle>
    <vehicle id="47" depart="47.00">
        <route edges="-4006726#0 -3998615#0 3013106#2 4006702#0 4006702#1 4006702#2 4006701"/>
    </vehicle>
    <vehicle id="48" depart="48.00">
        <route edges="4006673 32302591#5 33174302#0 33174302#1 4686970#0 4686970#1 122161381 30350448 8364476 30350450#0 30350450#1 30350450#2 -3013106#2 -3013106#1 -3013107"/>
    </vehicle>
    <vehicle id="49" depart="49.00">
        <route edges="-4006693#1 -23605595 -8403007 29900564#2 -4006691 29900565#1 29900565#2 8402998#0"/>
    </vehicle>
</routes>
