<?xml version="1.0" encoding="UTF-8"?>
<!-- generated on 2020-06-19 23:46:52.324569 by randomTrips.py UNKNOWN
  options: -n erlangen.net.xml -r test.rou.xml -e 50 -l
-->
<routes xmlns:xsi="http://www.w3.org/2001/XMLSchema-instance" xsi:noNamespaceSchemaLocation="http://sumo.dlr.de/xsd/routes_file.xsd">
    <trip id="0" depart="0.00" from="3998645#2" to="4006684"/>
    <trip id="1" depart="1.00" from="-9643180" to="-32270592#0"/>
    <trip id="2" depart="2.00" from="23570844#2" to="4006672"/>
    <trip id="3" depart="3.00" from="-28613727#1" to="4319352#1"/>
    <trip id="4" depart="4.00" from="10425130" to="-29900565#2"/>
    <trip id="5" depart="5.00" from="4900741" to="30350450#1"/>
    <trip id="6" depart="6.00" from="-10425128#0" to="113939241"/>
    <trip id="7" depart="7.00" from="30405358#1" to="-4006703#0"/>
    <trip id="8" depart="8.00" from="-32320329" to="-3998645#2"/>
    <trip id="9" depart="9.00" from="30405358#0" to="10425131"/>
    <trip id="10" depart="10.00" from="4006725#0" to="-31401017#1"/>
    <trip id="11" depart="11.00" from="4047316" to="4047241"/>
    <trip id="12" depart="12.00" from="-23605600#1" to="3998612#1"/>
    <trip id="13" depart="13.00" from="-113939241" to="3998615#2"/>
    <trip id="14" depart="14.00" from="3998615#0" to="85355911#0"/>
    <trip id="15" depart="15.00" from="3998615#2" to="4047378"/>
    <trip id="16" depart="16.00" from="-8402998#3" to="23605595"/>
    <trip id="17" depart="17.00" from="31982182#0" to="113939241"/>
    <trip id="18" depart="18.00" from="4006694" to="-15259223"/>
    <trip id="19" depart="19.00" from="-31401017#0" to="30357194"/>
    <trip id="20" depart="20.00" from="-8402998#2" to="-3998613#2"/>
    <trip id="21" depart="21.00" from="-4006726#0" to="-31401017#0"/>
    <trip id="22" depart="22.00" from="30405358#1" to="-25398494#0"/>
    <trip id="23" depart="23.00" from="4319352#1" to="4047378"/>
    <trip id="24" depart="24.00" from="-26188722" to="-28613727#0"/>
    <trip id="25" depart="25.00" from="-94344940#3" to="-4047532"/>
    <trip id="26" depart="26.00" from="4319353" to="-4006726#1"/>
    <trip id="27" depart="27.00" from="-29900564#5" to="23605600#0"/>
    <trip id="28" depart="28.00" from="15259223" to="126606716"/>
    <trip id="29" depart="29.00" from="-5445204#3" to="4099309"/>
    <trip id="30" depart="30.00" from="28613734" to="-4006693#4"/>
    <trip id="31" depart="31.00" from="-31353573#0" to="-126606716"/>
    <trip id="32" depart="32.00" from="4006688#0" to="31982182#0"/>
    <trip id="33" depart="33.00" from="-4006687" to="-32302591#2"/>
    <trip id="34" depart="34.00" from="-3998645#0" to="4006702#1"/>
    <trip id="35" depart="35.00" from="15259223" to="-28269598"/>
    <trip id="36" depart="36.00" from="30350450#1" to="113939241"/>
    <trip id="37" depart="37.00" from="29900564#1" to="39539626"/>
    <trip id="38" depart="38.00" from="23360299" to="3998613#0"/>
    <trip id="39" depart="39.00" from="31241848" to="31982182#1"/>
    <trip id="40" depart="40.00" from="4006672" to="3998612#2"/>
    <trip id="41" depart="41.00" from="-32320329" to="113939242#2"/>
    <trip id="42" depart="42.00" from="15259223" to="4006740"/>
    <trip id="43" depart="43.00" from="-10425128#0" to="4319352#1"/>
    <trip id="44" depart="44.00" from="32270592#1" to="-4099309"/>
    <trip id="45" depart="45.00" from="4006725#1" to="4006691"/>
    <trip id="46" depart="46.00" from="4900043" to="23570844#2"/>
    <trip id="47" depart="47.00" from="-4006726#0" to="4006701"/>
    <trip id="48" depart="48.00" from="4006673" to="-3013107"/>
    <trip id="49" depart="49.00" from="-4006693#1" to="8402998#0"/>
</routes>
